Version 4
SHEET 1 880 680
WIRE 576 0 576 -48
WIRE -320 16 -320 -48
WIRE 64 80 -48 80
WIRE 416 80 288 80
WIRE -1072 144 -1072 48
WIRE -320 144 -320 96
WIRE 64 144 -320 144
WIRE 576 144 576 80
WIRE 576 144 288 144
WIRE 64 208 -80 208
WIRE 576 208 576 144
WIRE 576 208 288 208
WIRE -320 272 -320 144
WIRE 64 272 -32 272
WIRE 576 288 576 208
WIRE -1072 336 -1072 224
WIRE 576 416 576 352
WIRE -320 448 -320 352
FLAG -1072 336 0
FLAG -1072 48 VCC
FLAG -48 80 0
FLAG -320 448 0
FLAG -80 208 Vout
FLAG -32 272 VCC
FLAG 416 80 VCC
FLAG 576 416 0
FLAG 576 -48 VCC
FLAG -320 -48 VCC
SYMBOL Misc\\NE555 176 176 R0
SYMATTR InstName U1
SYMBOL voltage -1072 128 R0
WINDOW 123 0 0 Left 0
WINDOW 39 0 0 Left 0
SYMATTR InstName V1
SYMATTR Value 12v
SYMBOL res -336 0 R0
SYMATTR InstName R1
SYMATTR Value 1k
SYMBOL res 560 -16 R0
SYMATTR InstName R2
SYMATTR Value 1k
SYMBOL cap 560 288 R0
SYMATTR InstName C1
SYMATTR Value 10µ
TEXT -1080 440 Left 2 !.tran 0 100m 0
TEXT -296 400 Left 2 !.model W1 (Ron=1 Roff=1Meg Vt=.5 Vh=-.4)
