Version 4
SHEET 1 880 680
WIRE 240 -16 -112 -16
WIRE 240 32 240 -16
WIRE 192 112 112 112
WIRE -528 144 -528 32
WIRE -416 144 -416 32
WIRE -112 144 -112 -16
WIRE 240 144 240 128
WIRE 400 144 240 144
WIRE 528 144 480 144
WIRE 656 144 528 144
WIRE 736 144 656 144
WIRE 656 160 656 144
WIRE 528 176 528 144
WIRE 240 192 240 144
WIRE 192 272 112 272
WIRE 528 272 528 240
WIRE 656 272 656 240
WIRE -528 288 -528 224
WIRE -416 288 -416 224
WIRE -112 368 -112 224
WIRE 240 368 240 288
FLAG 240 368 0
FLAG -112 368 0
FLAG -528 288 0
FLAG 112 112 sig1
FLAG -528 32 sig1
FLAG 112 272 sig2
FLAG -416 288 0
FLAG -416 32 sig2
FLAG 528 272 0
FLAG 656 272 0
FLAG 736 144 Vo
SYMBOL nmos 192 32 R0
SYMATTR InstName M1
SYMATTR Value IRF2807
SYMBOL nmos 192 192 R0
SYMATTR InstName M2
SYMATTR Value IRF2807
SYMBOL voltage -112 128 R0
WINDOW 123 0 0 Left 2
WINDOW 39 0 0 Left 2
SYMATTR InstName V1
SYMATTR Value 12
SYMBOL voltage -528 128 R0
WINDOW 3 -168 209 Left 2
WINDOW 123 0 0 Left 2
WINDOW 39 0 0 Left 2
SYMATTR Value PULSE(0 12 0 10n 10n 20.575u 41.15u)
SYMATTR InstName V2
SYMBOL voltage -416 128 R0
WINDOW 3 -283 237 Left 2
WINDOW 123 0 0 Left 2
WINDOW 39 0 0 Left 2
SYMATTR Value PULSE(0 12 20.575u 10n 10n 20.575u 41.15u)
SYMATTR InstName V3
SYMBOL ind 384 160 R270
WINDOW 0 32 56 VTop 2
WINDOW 3 5 56 VBottom 2
SYMATTR InstName L1
SYMATTR Value 300µH
SYMBOL cap 512 176 R0
SYMATTR InstName C1
SYMATTR Value 100µF
SYMBOL res 640 144 R0
SYMATTR InstName R1
SYMATTR Value 5
TEXT -696 392 Left 2 !.tran 6m
