Version 4
SHEET 1 880 680
WIRE 176 80 96 80
WIRE 224 80 176 80
WIRE 176 112 176 80
WIRE 224 112 224 80
WIRE -240 128 -240 80
WIRE -240 256 -240 208
WIRE 176 272 176 192
WIRE 176 272 112 272
WIRE 224 288 224 192
WIRE 304 288 224 288
WIRE 416 288 368 288
WIRE 528 288 416 288
WIRE 592 288 528 288
WIRE 224 304 224 288
WIRE 416 336 416 288
WIRE 528 336 528 288
WIRE 592 336 592 288
WIRE 160 352 112 352
WIRE 224 448 224 400
WIRE 416 448 416 400
WIRE 528 448 528 400
FLAG -240 256 0
FLAG -240 80 Vcc
FLAG 96 80 Vcc
FLAG 224 448 0
FLAG 592 288 Vout
FLAG 592 416 0
FLAG 416 448 0
FLAG 528 448 0
SYMBOL ind2 192 208 R180
WINDOW 0 36 80 Left 2
WINDOW 3 36 40 Left 2
SYMATTR InstName L1
SYMATTR Value 9
SYMBOL ind2 208 96 R0
SYMATTR InstName L2
SYMATTR Value 1
SYMBOL voltage -240 112 R0
WINDOW 123 0 0 Left 0
WINDOW 39 24 124 Left 2
SYMATTR SpiceLine Rser=0.0001
SYMATTR InstName V1
SYMATTR Value 1.5
SYMBOL res 96 256 R0
SYMATTR InstName R1
SYMATTR Value 10
SYMBOL npn 160 304 R0
SYMATTR InstName Q1
SYMBOL res 576 320 R0
SYMATTR InstName R2
SYMATTR Value 1000
SYMBOL diode 304 304 R270
WINDOW 0 32 32 VTop 2
WINDOW 3 0 32 VBottom 2
SYMATTR InstName D1
SYMBOL cap 400 336 R0
SYMATTR InstName C1
SYMATTR Value 22µ
SYMBOL zener 544 400 R180
WINDOW 0 24 64 Left 2
WINDOW 3 -47 -90 Left 2
SYMATTR InstName D2
SYMATTR Value UDZV12B
TEXT 152 16 Left 2 !K1 L1 L2 1.
TEXT -272 488 Left 2 !.tran 1
