Version 4
SHEET 1 1140 680
WIRE 592 -64 -112 -64
WIRE 784 -64 592 -64
WIRE 1088 -64 784 -64
WIRE 784 48 784 -64
WIRE 1088 64 1088 -64
WIRE 448 96 448 16
WIRE 496 96 448 96
WIRE 112 112 32 112
WIRE 448 112 448 96
WIRE 448 112 336 112
WIRE 32 144 32 112
WIRE -112 176 -112 -64
WIRE 112 176 -112 176
WIRE 496 176 336 176
WIRE -112 192 -112 176
WIRE -464 208 -464 80
WIRE 784 208 784 112
WIRE 816 208 784 208
WIRE 912 208 896 208
WIRE 960 208 912 208
WIRE 1088 208 1088 128
WIRE 1088 208 1040 208
WIRE 112 240 48 240
WIRE 592 240 592 -64
WIRE 592 240 336 240
WIRE -112 304 -112 256
WIRE 112 304 32 304
WIRE 912 352 912 208
WIRE -464 400 -464 288
FLAG -464 400 0
FLAG -464 80 Vcc
FLAG 32 304 Vcc
FLAG 448 16 Vcc
FLAG -112 304 0
FLAG 48 240 Out
FLAG 912 352 Out
FLAG 32 144 0
SYMBOL Misc\\NE555 224 208 R0
SYMATTR InstName U1
SYMBOL voltage -464 192 R0
WINDOW 123 0 0 Left 0
WINDOW 39 0 0 Left 0
SYMATTR InstName V1
SYMATTR Value 5v
SYMBOL cap -128 192 R0
SYMATTR InstName C1
SYMATTR Value 22µF
SYMBOL diode 768 48 R0
SYMATTR InstName D1
SYMBOL diode 1104 128 R180
WINDOW 0 24 64 Left 2
WINDOW 3 24 0 Left 2
SYMATTR InstName D2
SYMBOL res 912 192 R90
WINDOW 0 0 56 VBottom 2
WINDOW 3 32 56 VTop 2
SYMATTR InstName R1
SYMATTR Value 9k
SYMBOL res 1056 192 R90
WINDOW 0 0 56 VBottom 2
WINDOW 3 32 56 VTop 2
SYMATTR InstName R2
SYMATTR Value 1k
SYMBOL res 480 80 R0
SYMATTR InstName R3
SYMATTR Value 1k
TEXT -496 520 Left 2 !.tran 500m
